"MOM4 test3"
1980 1 1 0 0 0
#output files

"ocean_snap",3600,"seconds",1,"hours","Time"
"ocean_eta_t",600,"seconds",1,"hours","Time"

# instantaneous snapshots 
"ocean_model","u","u",        "ocean_snap","all",.false.,"none",2
"ocean_model","v","v",        "ocean_snap","all",.false.,"none",2
"ocean_model","temp","temp",  "ocean_snap","all",.false.,"none",2
"ocean_model","salt","salt",  "ocean_snap","all",.false.,"none",2
"ocean_model","eta_t","eta_t","ocean_snap","all",.false.,"none",2
"ocean_model","wt","wt",      "ocean_snap","all",.false.,"none",2
"ocean_model","wu","wu",      "ocean_snap","all",.false.,"none",2
"ocean_model","ud","ud",      "ocean_snap","all",.false.,"none",2
"ocean_model","vd","vd",      "ocean_snap","all",.false.,"none",2

#======================================================================
# instantaneous eta_t
"ocean_model","eta_t","eta_t",    "ocean_eta_t","all",.false.,"none",2
"ocean_model","ud","ud",          "ocean_eta_t","all",.false.,"none",2
"ocean_model","vd","vd",          "ocean_eta_t","all",.false.,"none",2
"ocean_model","ctrop_p","ctrop_p","ocean_eta_t","all",.false.,"none",2
"ocean_model","ctrop_a","ctrop_a","ocean_eta_t","all",.false.,"none",2
#======================================================================
#
#  FORMATS FOR FILE ENTRIES (not all input values are used)
#  ------------------------
#
#"file_name", output_freq, "output_units", format, "time_units", "long_name"
#
#
#   output_freq:  > 0  output frequency in "output_units"
#                 = 0  output frequency every time step
#                 =-1  output frequency at end of run
#
#   output_units = units used for output frequency
#                  (years, months, days, minutes, hours, seconds)
#
#   time_units   = units used to label the time axis
#                  (days, minutes, hours, seconds)
#
#
#  FORMAT FOR FIELD ENTRIES (not all input values are used)
#  ------------------------
#
#"module_name", "field_name", "output_name", "file_name", "time_sampling", time_avg, "other_opts", packing
#
#   time_avg = .true. or .false. or min or max
#
#   packing  = 1  double precision
#            = 2  float
#            = 4  packed 16-bit integers
#            = 8  packed 1-byte (not tested?)


