"MOM4 test4"
1959 1 1 0 0 0
#output files


"ice_day" ,       1, "days", 1, "hours", "Time"
"ocean_day",      1, "days", 1, "hours", "Time"
"ocean_snap",     1, "days", 1, "hours", "Time"
"ocean_cfc_sc",   1, "days", 1, "hours", "Time"
"ocean_biotic_sc",1, "days", 1, "hours", "Time"
"ocean_biotic_2d",1, "days", 1, "hours", "Time"
"ocean_biotic_3d",1, "days", 1, "hours", "Time"

#diagnostic field entries
#=======================================================================
# ocean model grid quantities (static fields and so not time averaged)
"ocean_model","geolon_t","geolon_t","ocean_day","all",.false.,"none",2
"ocean_model","geolat_t","geolat_t","ocean_day","all",.false.,"none",2
"ocean_model","geolon_c","geolon_c","ocean_day","all",.false.,"none",2
"ocean_model","geolat_c","geolat_c","ocean_day","all",.false.,"none",2
"ocean_model","area_t","area_t",    "ocean_day","all",.false.,"none",2
"ocean_model","area_u","area_u",    "ocean_day","all",.false.,"none",2
"ocean_model","ht","ht",            "ocean_day","all",.false.,"none",2
"ocean_model","hu","hu",            "ocean_day","all",.false.,"none",2
#=======================================================================
# prognostic fields 
"ocean_model","dht","dht",    "ocean_day","all",.true.,"none",2
"ocean_model","dhu","dhu",    "ocean_day","all",.true.,"none",2
"ocean_model","temp","temp",  "ocean_day","all",.true.,"none",2
"ocean_model","salt","salt",  "ocean_day","all",.true.,"none",2
"ocean_model","u","u",        "ocean_day","all",.true.,"none",2
"ocean_model","v","v",        "ocean_day","all",.true.,"none",2
"ocean_model","eta_t","eta_t","ocean_day","all",.true.,"none",2
"ocean_model","eta_u","eta_u","ocean_day","all",.true.,"none",2
#========================================================================
# vertical velocity and volume transport
"ocean_model","wt","wt",                    "ocean_day","all",.true.,"none",2
"ocean_model","wu","wu",                    "ocean_day","all",.true.,"none",2
"ocean_model","ud","ud",                    "ocean_day","all",.true.,"none",2
"ocean_model","vd","vd",                    "ocean_day","all",.true.,"none",2
"ocean_model","psiu","psiu",                "ocean_day","all",.true.,"none",2
"ocean_model","psiv","psiv",                "ocean_day","all",.true.,"none",2
"ocean_model","tx_trans","tx_trans",        "ocean_day","all",.true.,"none",2
"ocean_model","ty_trans","ty_trans",        "ocean_day","all",.true.,"none",2
"ocean_model","ty_trans_gm","ty_trans_gm",  "ocean_day","all",.true.,"none",2
"ocean_model","tx_trans_gm","tx_trans_gm",  "ocean_day","all",.true.,"none",2
"ocean_model","ty_trans_rho","ty_trans_rho","ocean_day","all",.true.,"none",2

#========================================================================================================
# diagnosing tracer transport 
"ocean_model","temp_yflux_sigma","temp_yflux_sigma",                  "ocean_day","all",.true.,"none",2
"ocean_model","temp_adv_flux_y_int_z","temp_adv_flux_y_int_z",        "ocean_day","all",.true.,"none",2
"ocean_model","salt_adv_flux_y_int_z","salt_adv_flux_y_int_z",        "ocean_day","all",.true.,"none",2
"ocean_model","temp_yflux_neutral_int_z","temp_yflux_neutral_int_z",  "ocean_day","all",.true.,"none",2
"ocean_model","salt_yflux_neutral_int_z","salt_yflux_neutral_int_z",  "ocean_day","all",.true.,"none",2
"ocean_model","temp_yflux_overflow_int_z","temp_yflux_overflow_int_z","ocean_day","all",.true.,"none",2
#========================================================================================================
# surface forcing
"ocean_model","sfc_hflux","sfc_hflux",        "ocean_day","all",.true.,"none",2
"ocean_model","sfc_hflux_adj","sfc_hflux_adj","ocean_day","all",.true.,"none",2
"ocean_model","pme","pme",                    "ocean_day","all",.true.,"none",2
"ocean_model","pme_adj","pme_adj",            "ocean_day","all",.true.,"none",2
"ocean_model","river","river",                "ocean_day","all",.true.,"none",2
"ocean_model","frazil","frazil",              "ocean_day","all",.true.,"none",2
"ocean_model","tau_x","tau_x",                "ocean_day","all",.true.,"none",2
"ocean_model","tau_y","tau_y",                "ocean_day","all",.true.,"none",2
#=======================================================================================
# layers 

"ocean_model","pot_rho","pot_rho",                  "ocean_day","all",.true.,"none",2
"ocean_model","potrho_mix_depth","potrho_mix_depth","ocean_day","all",.true.,"none",2
"ocean_model","potrho_mix_base","potrho_mix_base",  "ocean_day","all",.true.,"none",2
"ocean_model","mld","mld",                          "ocean_day","all",.true.,"none",2
"ocean_model","hblt","hblt",                        "ocean_day","all",.true.,"none",2
#=======================================================================================
# physical parameterizations 

"ocean_model","diff_cbt_kpp_s","diff_cbt_kpp_s","ocean_day","all",.true.,"none",2
"ocean_model","agm","agm",                      "ocean_day","all",.true.,"none",2
#===================================================================================
# instantaneous snapshots 
"ocean_model","u","u",      "ocean_snap","all",.false.,"none",2
"ocean_model","v","v",      "ocean_snap","all",.false.,"none",2
"ocean_model","temp","temp","ocean_snap","all",.false.,"none",2

#=============================================================================
# ice model fields 
"ice_model", "FRAZIL",     "FRAZIL",     "ice_day", "all", .true., "none", 2
"ice_model", "HI",         "HI",         "ice_day", "all", .true., "none", 2
"ice_model", "HS",         "HS",         "ice_day", "all", .true., "none", 2
"ice_model", "TS",         "TS",         "ice_day", "all", .true., "none", 2
"ice_model", "T1",         "T1",         "ice_day", "all", .true., "none", 2
"ice_model", "T2",         "T2",         "ice_day", "all", .true., "none", 2
"ice_model", "CN",         "CN",         "ice_day", "all", .true., "none", 2
"ice_model", "EXT",        "EXT",        "ice_day", "all", .true., "none", 2
"ice_model", "MI",         "MI",         "ice_day", "all", .true., "none", 2
"ice_model", "XPRT",       "XPRT",       "ice_day", "all", .true., "none", 2
"ice_model", "LSRC",       "LSRC",       "ice_day", "all", .true., "none", 2
"ice_model", "LSNK",       "LSNK",       "ice_day", "all", .true., "none", 2
"ice_model", "BSNK",       "BSNK",       "ice_day", "all", .true., "none", 2
"ice_model", "SN2IC",      "SN2IC",      "ice_day", "all", .true., "none", 2
"ice_model", "SW",         "SW",         "ice_day", "all", .true., "none", 2
"ice_model", "LW",         "LW",         "ice_day", "all", .true., "none", 2
"ice_model", "SH",         "SH",         "ice_day", "all", .true., "none", 2
"ice_model", "LH",         "LH",         "ice_day", "all", .true., "none", 2
"ice_model", "TMELT",      "TMELT",      "ice_day", "all", .true., "none", 2
"ice_model", "BMELT",      "BMELT",      "ice_day", "all", .true., "none", 2
"ice_model", "UI",         "UI",         "ice_day", "all", .true., "none", 2
"ice_model", "VI",         "VI",         "ice_day", "all", .true., "none", 2
"ice_model", "FA_X",       "FA_X",       "ice_day", "all", .true., "none", 2
"ice_model", "FA_Y",       "FA_Y",       "ice_day", "all", .true., "none", 2
"ice_model", "FI_X",       "FI_X",       "ice_day", "all", .true., "none", 2
"ice_model", "FI_Y",       "FI_Y",       "ice_day", "all", .true., "none", 2
"ice_model", "SNOWFL",     "SNOWFL",     "ice_day", "all", .true., "none", 2
"ice_model", "RAIN",       "RAIN",       "ice_day", "all", .true., "none", 2
"ice_model", "EVAP",       "EVAP",       "ice_day", "all", .true., "none", 2
"ice_model", "CALVING",    "CALVING",    "ice_day", "all", .true., "none", 2
"ice_model", "RUNOFF",     "RUNOFF",     "ice_day", "all", .true., "none", 2
"ice_model", "CELL_AREA",  "CELL_AREA",  "ice_day", "all", .false., "none", 2
"ice_model", "GEOLON",     "GEOLON",     "ice_day", "all", .false., "none", 2
"ice_model", "GEOLAT",     "GEOLAT",     "ice_day", "all", .false., "none", 2
#===============================================================================


"ocean_model","age_global","age_global",         "ocean_cfc_sc","all",.true.,"none",2
"ocean_model","cfc_11","cfc_11",                 "ocean_cfc_sc","all",.true.,"none",2
"ocean_model","cfc_12","cfc_12",                 "ocean_cfc_sc","all",.true.,"none",2
#
"ocean_model","po4","po4",                    "ocean_biotic_sc","all",.true.,"none",2
"ocean_model","dop","dop",                    "ocean_biotic_sc","all",.true.,"none",2
"ocean_model","o2","o2",                      "ocean_biotic_sc","all",.true.,"none",2
"ocean_model","dic","dic",                    "ocean_biotic_sc","all",.true.,"none",2
"ocean_model","alk","alk",                    "ocean_biotic_sc","all",.true.,"none",2
#
"ocean_model","sc_co2","sc_co2",              "ocean_biotic_2d","all",.true.,"none",2
"ocean_model","sc_o2","sc_o2",                "ocean_biotic_2d","all",.true.,"none",2
"ocean_model","o2_saturation","o2_saturation","ocean_biotic_2d","all",.true.,"none",2
"ocean_model","kw_co2","kw_co2",              "ocean_biotic_2d","all",.true.,"none",2
"ocean_model","kw_o2","kw_o2",                "ocean_biotic_2d","all",.true.,"none",2
"ocean_model","csat","csat",                  "ocean_biotic_2d","all",.true.,"none",2
"ocean_model","csurf","csurf",                "ocean_biotic_2d","all",.true.,"none",2
"ocean_model","pco2surf","pco2surf",          "ocean_biotic_2d","all",.true.,"none",2
"ocean_model","dpco2","dpco2",                "ocean_biotic_2d","all",.true.,"none",2
"ocean_model","flux_poc","flux_poc",          "ocean_biotic_2d","all",.true.,"none",2
"ocean_model","flux_caco3","flux_caco3",      "ocean_biotic_2d","all",.true.,"none",2
"ocean_model","pco2atm","pco2atm",            "ocean_biotic_2d","all",.true.,"none",2
"ocean_model","htotal","htotal",              "ocean_biotic_2d","all",.true.,"none",2
"ocean_model","po4_totflux","po4_totflux",    "ocean_biotic_2d","all",.true.,"none",2
"ocean_model","dop_totflux","dop_totflux",    "ocean_biotic_2d","all",.true.,"none",2
"ocean_model","o2_totflux","o2_totflux",      "ocean_biotic_2d","all",.true.,"none",2
"ocean_model","dic_totflux","dic_totflux",    "ocean_biotic_2d","all",.true.,"none",2
"ocean_model","alk_totflux","alk_totflux",    "ocean_biotic_2d","all",.true.,"none",2
#
"ocean_model","jprod","jprod",                "ocean_biotic_3d","all",.true.,"none",2
"ocean_model","jdop","jdop",                  "ocean_biotic_3d","all",.true.,"none",2
"ocean_model","jpo4","jpo4",                  "ocean_biotic_3d","all",.true.,"none",2
"ocean_model","jo2","jo2",                    "ocean_biotic_3d","all",.true.,"none",2
"ocean_model","fc","fc",                      "ocean_biotic_3d","all",.true.,"none",2
"ocean_model","fca","fca",                    "ocean_biotic_3d","all",.true.,"none",2
#
#  FORMATS FOR FILE ENTRIES (not all input values are used)
#  ------------------------
#
#"file_name", output_freq, "output_units", format, "time_units", "long_name"
#
#
#   output_freq:  > 0  output frequency in "output_units"
#                 = 0  output frequency every time step
#                 =-1  output frequency at end of run
#
#   output_units = units used for output frequency
#                  (years, months, days, minutes, hours, seconds)
#
#   time_units   = units used to label the time axis
#                  (days, minutes, hours, seconds)
#
#
#  FORMAT FOR FIELD ENTRIES (not all input values are used)
#  ------------------------
#
#"module_name", "field_name", "output_name", "file_name", "time_sampling", time_avg, "other_opts", packing
#
#   time_avg = .true. or .false.
#
#   packing  = 1  double precision
#            = 2  float
#            = 4  packed 16-bit integers
#            = 8  packed 1-byte (not tested?)

