"diag_tracers","ocean_mod","frazil"

file_in  = INPUT/ocean_frazil.res.nc
file_out = RESTART/ocean_frazil.res.nc
/


"prog_tracers","ocean_mod","temp"

horizontal-advection-scheme = quicker
vertical-advection-scheme = quicker
file_in  = INPUT/ocean_temp_salt.res.nc
file_out = RESTART/ocean_temp_salt.res.nc
/

"prog_tracers","ocean_mod","salt"

horizontal-advection-scheme = mdfl_sweby
vertical-advection-scheme = mdfl_sweby
file_in  = INPUT/ocean_temp_salt.res.nc
file_out = RESTART/ocean_temp_salt.res.nc
/


"tracer_packages","ocean_mod","ocean_age_tracer"

names = global
horizontal-advection-scheme = mdfl_sweby
vertical-advection-scheme = mdfl_sweby
file_in  = INPUT/ocean_age.res.nc
file_out = RESTART/ocean_age.res.nc
min_tracer_limit=0.0
/

"prog_tracers","ocean_mod","age_global"

const_init_tracer = t
const_init_value = 0.0
/

"namelists","ocean_mod","ocean_age_tracer/global"

slat = -90.0
nlat =  90.0
wlon =   0.0
elon = 360.0
/



"xland_mix","ocean_mod","xland_mix"
"xland","testpoint1","ixland_1=12,ixland_2=13,jxland_1=12,jxland_2=14,kxland_1=1,kxland_2=5,vxland=0.55e6"
"xland","testpoint2","ixland_1=4 ,ixland_2=5 ,jxland_1=20,jxland_2=20,kxland_1=1,kxland_2=5,vxland=0.55e6"
/

 
"xland_insert","ocean_mod","xland_insert"
"xland","testpoint1","ixland_1=12,ixland_2=13,jxland_1=12,jxland_2=14,kxland_1=1,kxland_2=1,tauxland=86400.0"
"xland","testpoint2","ixland_1=4 ,ixland_2=5 ,jxland_1=20,jxland_2=20,kxland_1=1,kxland_2=1,tauxland=86400.0"
/


"diff_cbt_enhance","ocean_mod","diff_cbt_enhance"
"diffcbt","testpoint1","itable=12 ,jtable=12,ktable_1=1,ktable_2=5,diff_cbt_table=1.0"
"diffcbt","testpoint2","itable=4  ,jtable=20,ktable_1=1,ktable_2=5,diff_cbt_table=1.0"
/
